import ExternalLib

print(extlibValue())
print("MODPATH-OK")
