import ExternalLib

print(ExternalLib.extlibValue())
print("MODPATH-OK")
